untitled
  ChemPy            3D                             0

 45 48  0  0  1  0  0  0  0  0999 V2000
   26.0640   12.4930   25.8600 C   0  0  0  0  0  0  0  0  0  0  0  0
   25.4450   13.4310   26.6980 C   0  0  0  0  0  0  0  0  0  0  0  0
   25.9840   13.7790   27.9460 C   0  0  0  0  0  0  0  0  0  0  0  0
   25.4430   14.7410   28.7720 O   0  0  0  0  0  0  0  0  0  0  0  0
   27.2230   13.1270   28.4100 C   0  0  0  0  0  0  0  0  0  0  0  0
   27.7640   13.4260   29.6380 O   0  0  0  0  0  0  0  0  0  0  0  0
   27.8280   12.1260   27.5410 C   0  0  0  0  0  0  0  0  0  0  0  0
   28.9610   11.5070   27.9900 O   0  0  0  0  0  0  0  0  0  0  0  0
   27.2350   11.8330   26.2990 C   0  0  0  0  0  0  0  0  0  0  0  0
   24.1440   15.3160   28.6360 C   0  0  0  0  0  0  0  0  0  0  0  0
   26.8700   13.3890   30.7860 C   0  0  0  0  0  0  0  0  0  0  0  0
   29.8020   10.7620   27.1150 C   0  0  0  0  0  0  0  0  0  0  0  0
   25.4290   12.0760   24.5390 C   0  0  0  0  0  0  0  0  0  0  0  0
   26.4400   11.9190   23.4280 C   0  0  0  0  0  0  0  0  0  0  0  0
   26.8070   10.7670   23.1850 O   0  0  0  0  0  0  0  0  0  0  0  0
   26.7030   14.4150   23.0640 C   0  0  0  0  0  0  0  0  0  0  0  0
   26.9440   12.9830   22.7690 N   0  0  0  0  0  0  0  0  0  0  0  0
   26.3060   15.1740   21.8260 C   0  0  0  0  0  0  0  0  0  0  0  0
   27.3950   15.0220   20.7830 C   0  0  0  0  0  0  0  0  0  0  0  0
   27.5600   13.5370   20.4500 C   0  0  0  0  0  0  0  0  0  0  0  0
   27.9310   12.7360   21.6880 C   0  0  0  0  0  0  0  0  0  0  0  0
   29.3150   13.1150   22.1380 C   0  0  0  0  0  0  0  0  0  0  0  0
   30.2650   13.1960   21.3650 O   0  0  0  0  0  0  0  0  0  0  0  0
   30.8420   13.9240   23.7770 C   0  0  0  0  0  0  0  0  0  0  0  0
   29.5260   13.3920   23.5260 O   0  0  0  0  0  0  0  0  0  0  0  0
   31.7740   12.7370   23.9910 C   0  0  0  0  0  0  0  0  0  0  0  0
   33.0600   13.0520   24.7720 C   0  0  0  0  0  0  0  0  0  0  0  0
   34.0170   11.8960   24.6370 C   0  0  0  0  0  0  0  0  0  0  0  0
   34.7060   12.0260   23.3130 C   0  0  0  0  0  0  0  0  0  0  0  0
   35.5940   13.0760   23.0810 C   0  0  0  0  0  0  0  0  0  0  0  0
   36.2220   13.1720   21.9050 N   0  0  0  0  0  0  0  0  0  0  0  0
   36.0230   12.2610   20.9290 C   0  0  0  0  0  0  0  0  0  0  0  0
   35.1570   11.1990   21.1270 C   0  0  0  0  0  0  0  0  0  0  0  0
   34.4870   11.0780   22.3340 C   0  0  0  0  0  0  0  0  0  0  0  0
   30.8940   14.7880   25.0110 C   0  0  0  0  0  0  0  0  0  0  0  0
   29.8050   15.7980   25.1730 C   0  0  0  0  0  0  0  0  0  0  0  0
   29.2090   15.4960   26.5360 C   0  0  0  0  0  0  0  0  0  0  0  0
   28.2110   16.5660   26.8370 C   0  0  0  0  0  0  0  0  0  0  0  0
   27.0640   16.6880   26.0730 C   0  0  0  0  0  0  0  0  0  0  0  0
   26.1460   17.6900   26.3640 C   0  0  0  0  0  0  0  0  0  0  0  0
   26.3630   18.5410   27.4300 C   0  0  0  0  0  0  0  0  0  0  0  0
   27.5070   18.4080   28.1990 C   0  0  0  0  0  0  0  0  0  0  0  0
   28.4300   17.4190   27.8960 C   0  0  0  0  0  0  0  0  0  0  0  0
   24.9560   10.8400   24.8180 F   0  0  0  0  0  0  0  0  0  0  0  0
   24.4000   12.8300   24.1420 F   0  0  0  0  0  0  0  0  0  0  0  0
  1  2  4  0  0  0  0
  1  9  4  0  0  0  0
  3  2  4  0  0  0  0
  3  4  1  0  0  0  0
  4 10  1  0  0  0  0
  5  3  4  0  0  0  0
  5  6  1  0  0  0  0
  6 11  1  0  0  0  0
  7  5  4  0  0  0  0
  7  8  1  0  0  0  0
  8 12  1  0  0  0  0
  9  7  4  0  0  0  0
 13  1  1  0  0  0  0
 13 44  1  0  0  0  0
 13 45  1  0  0  0  0
 14 13  1  0  0  0  0
 14 15  2  0  0  0  0
 16 17  1  0  0  0  0
 17 14  1  0  0  0  0
 18 16  1  0  0  0  0
 19 18  1  0  0  0  0
 20 19  1  0  0  0  0
 21 17  1  0  0  0  0
 21 20  1  0  0  0  0
 22 21  1  0  0  0  0
 22 25  1  0  0  0  0
 23 22  2  0  0  0  0
 24 26  1  0  0  0  0
 24 35  1  0  0  0  0
 25 24  1  0  0  0  0
 26 27  1  0  0  0  0
 27 28  1  0  0  0  0
 28 29  1  0  0  0  0
 29 30  4  0  0  0  0
 29 34  4  0  0  0  0
 31 30  4  0  0  0  0
 32 31  4  0  0  0  0
 33 32  4  0  0  0  0
 34 33  4  0  0  0  0
 35 36  1  0  0  0  0
 36 37  1  0  0  0  0
 37 38  1  0  0  0  0
 38 39  4  0  0  0  0
 38 43  4  0  0  0  0
 40 39  4  0  0  0  0
 41 40  4  0  0  0  0
 42 41  4  0  0  0  0
 43 42  4  0  0  0  0
M  END

$$$$
